feeders/25_SE001_1/004_chavesMT.dss
New Line.17CS_1755 phases=3 bus1=780491.1.2.3 bus2=17CS1755.1.2.3 r1=0.001 r0=0.001 x1=0 x0=0 c1=0 c0=0 length=0.001 switch=T
New Line.17DJ_25 phases=3 bus1=1_SE001_25.1.2.3 bus2=17DJ25.1.2.3 r1=0.001 r0=0.001 x1=0 x0=0 c1=0 c0=0 length=0.001 switch=T
New Line.17RL_5219 phases=3 bus1=789571.1.2.3 bus2=17RL5219.1.2.3 r1=0.001 r0=0.001 x1=0 x0=0 c1=0 c0=0 length=0.001 switch=T
New Line.1BP_1 phases=3 bus1=796841.1.2.3 bus2=1BP1.1.2.3 r1=0.001 r0=0.001 x1=0 x0=0 c1=0 c0=0 length=0.001 switch=T
New Line.1CF_119 phases=3 bus1=219781.1.2.3 bus2=1CF119.1.2.3 r1=0.001 r0=0.001 x1=0 x0=0 c1=0 c0=0 length=0.001 switch=T
New Line.1CF_1193 phases=3 bus1=164661.1.2.3 bus2=1CF1193.1.2.3 r1=0.001 r0=0.001 x1=0 x0=0 c1=0 c0=0 length=0.001 switch=T
New Line.1CF_1201 phases=1 bus1=771501.2 bus2=1CF1201.2 r1=0.001 r0=0.001 x1=0 x0=0 c1=0 c0=0 length=0.001 switch=T
New Line.1CF_1236 phases=1 bus1=344961.3 bus2=1CF1236.3 r1=0.001 r0=0.001 x1=0 x0=0 c1=0 c0=0 length=0.001 switch=T
New Line.1CF_1251 phases=3 bus1=760091.1.2.3 bus2=1CF1251.1.2.3 r1=0.001 r0=0.001 x1=0 x0=0 c1=0 c0=0 length=0.001 switch=T
New Line.1CF_1257 phases=3 bus1=723691.1.2.3 bus2=1CF1257.1.2.3 r1=0.001 r0=0.001 x1=0 x0=0 c1=0 c0=0 length=0.001 switch=T
New Line.1CF_1519 phases=3 bus1=696371.1.2.3 bus2=1CF1519.1.2.3 r1=0.001 r0=0.001 x1=0 x0=0 c1=0 c0=0 length=0.001 switch=T
New Line.1CF_1584 phases=1 bus1=765691.2 bus2=1CF1584.2 r1=0.001 r0=0.001 x1=0 x0=0 c1=0 c0=0 length=0.001 switch=T
New Line.1CF_1651 phases=3 bus1=765021.1.2.3 bus2=1CF1651.1.2.3 r1=0.001 r0=0.001 x1=0 x0=0 c1=0 c0=0 length=0.001 switch=T
New Line.1CF_1683 phases=3 bus1=765701.1.2.3 bus2=1CF1683.1.2.3 r1=0.001 r0=0.001 x1=0 x0=0 c1=0 c0=0 length=0.001 switch=T
New Line.1CF_172 phases=3 bus1=121101.1.2.3 bus2=1CF172.1.2.3 r1=0.001 r0=0.001 x1=0 x0=0 c1=0 c0=0 length=0.001 switch=T
New Line.1CF_1773 phases=1 bus1=783771.3 bus2=1CF1773.3 r1=0.001 r0=0.001 x1=0 x0=0 c1=0 c0=0 length=0.001 switch=T
New Line.1CF_1835 phases=1 bus1=798911.2 bus2=1CF1835.2 r1=0.001 r0=0.001 x1=0 x0=0 c1=0 c0=0 length=0.001 switch=T
New Line.1CF_400 phases=1 bus1=67141.3 bus2=1CF400.3 r1=0.001 r0=0.001 x1=0 x0=0 c1=0 c0=0 length=0.001 switch=T
New Line.1CF_405 phases=3 bus1=293901.1.2.3 bus2=1CF405.1.2.3 r1=0.001 r0=0.001 x1=0 x0=0 c1=0 c0=0 length=0.001 switch=T
New Line.1CF_411 phases=3 bus1=325831.1.2.3 bus2=1CF411.1.2.3 r1=0.001 r0=0.001 x1=0 x0=0 c1=0 c0=0 length=0.001 switch=T
New Line.1CF_416 phases=3 bus1=292541.1.2.3 bus2=1CF416.1.2.3 r1=0.001 r0=0.001 x1=0 x0=0 c1=0 c0=0 length=0.001 switch=T
New Line.1CF_438 phases=1 bus1=84201.3 bus2=1CF438.3 r1=0.001 r0=0.001 x1=0 x0=0 c1=0 c0=0 length=0.001 switch=T
New Line.1CF_659 phases=1 bus1=588321.3 bus2=1CF659.3 r1=0.001 r0=0.001 x1=0 x0=0 c1=0 c0=0 length=0.001 switch=T
New Line.1CF_663 phases=1 bus1=615771.1 bus2=1CF663.1 r1=0.001 r0=0.001 x1=0 x0=0 c1=0 c0=0 length=0.001 switch=T
New Line.1CF_670 phases=1 bus1=587161.3 bus2=1CF670.3 r1=0.001 r0=0.001 x1=0 x0=0 c1=0 c0=0 length=0.001 switch=T
New Line.1CF_845 phases=1 bus1=274781.2 bus2=1CF845.2 r1=0.001 r0=0.001 x1=0 x0=0 c1=0 c0=0 length=0.001 switch=T
New Line.1CF_918 phases=1 bus1=371511.3 bus2=1CF918.3 r1=0.001 r0=0.001 x1=0 x0=0 c1=0 c0=0 length=0.001 switch=T
New Line.1CF_919 phases=1 bus1=424181.3 bus2=1CF919.3 r1=0.001 r0=0.001 x1=0 x0=0 c1=0 c0=0 length=0.001 switch=T
New Line.1CS_1006 phases=1 bus1=555491.2 bus2=1CS1006.2 r1=0.001 r0=0.001 x1=0 x0=0 c1=0 c0=0 length=0.001 switch=T
New Line.1CS_121 phases=3 bus1=762801.1.2.3 bus2=1CS121.1.2.3 r1=0.001 r0=0.001 x1=0 x0=0 c1=0 c0=0 length=0.001 switch=T
New Line.1CS_353 phases=3 bus1=274811.1.2.3 bus2=1CS353.1.2.3 r1=0.001 r0=0.001 x1=0 x0=0 c1=0 c0=0 length=0.001 switch=T
New Line.1CS_957 phases=3 bus1=169561.1.2.3 bus2=1CS957.1.2.3 r1=0.001 r0=0.001 x1=0 x0=0 c1=0 c0=0 length=0.001 switch=T
New Line.1FR_1202 phases=1 bus1=534391.2 bus2=1FR1202.2 r1=0.001 r0=0.001 x1=0 x0=0 c1=0 c0=0 length=0.001 switch=T
New Line.1FR_122 phases=3 bus1=274971.1.2.3 bus2=1FR122.1.2.3 r1=0.001 r0=0.001 x1=0 x0=0 c1=0 c0=0 length=0.001 switch=T
New Line.1FR_406 phases=3 bus1=325791.1.2.3 bus2=1FR406.1.2.3 r1=0.001 r0=0.001 x1=0 x0=0 c1=0 c0=0 length=0.001 switch=T
New Line.1FR_410 phases=1 bus1=718961.3 bus2=1FR410.3 r1=0.001 r0=0.001 x1=0 x0=0 c1=0 c0=0 length=0.001 switch=T
New Line.1FR_713 phases=3 bus1=641551.1.2.3 bus2=1FR713.1.2.3 r1=0.001 r0=0.001 x1=0 x0=0 c1=0 c0=0 length=0.001 switch=T
New Line.1FS_403 phases=1 bus1=803191.3 bus2=1FS403.3 r1=0.001 r0=0.001 x1=0 x0=0 c1=0 c0=0 length=0.001 switch=T
New Line.1RL_1722 phases=3 bus1=785801.1.2.3 bus2=1RL1722.1.2.3 r1=0.001 r0=0.001 x1=0 x0=0 c1=0 c0=0 length=0.001 switch=T
New Line.1RL_1748 phases=3 bus1=798922.1.2.3 bus2=1RL1748.1.2.3 r1=0.001 r0=0.001 x1=0 x0=0 c1=0 c0=0 length=0.001 switch=T
New Line.1RL_222 phases=3 bus1=219632.1.2.3 bus2=1RL222.1.2.3 r1=0.001 r0=0.001 x1=0 x0=0 c1=0 c0=0 length=0.001 switch=T
New Line.25CF_1007 phases=3 bus1=695881.1.2.3 bus2=25CF1007.1.2.3 r1=0.001 r0=0.001 x1=0 x0=0 c1=0 c0=0 length=0.001 switch=T
New Line.25CF_1029 phases=1 bus1=540321.1 bus2=25CF1029.1 r1=0.001 r0=0.001 x1=0 x0=0 c1=0 c0=0 length=0.001 switch=T
New Line.25CF_1039 phases=3 bus1=634041.1.2.3 bus2=25CF1039.1.2.3 r1=0.001 r0=0.001 x1=0 x0=0 c1=0 c0=0 length=0.001 switch=T
New Line.25CF_1107 phases=3 bus1=674121.1.2.3 bus2=25CF1107.1.2.3 r1=0.001 r0=0.001 x1=0 x0=0 c1=0 c0=0 length=0.001 switch=T
New Line.25CF_1111 phases=3 bus1=641161.1.2.3 bus2=25CF1111.1.2.3 r1=0.001 r0=0.001 x1=0 x0=0 c1=0 c0=0 length=0.001 switch=T
New Line.25CF_1188 phases=3 bus1=534651.1.2.3 bus2=25CF1188.1.2.3 r1=0.001 r0=0.001 x1=0 x0=0 c1=0 c0=0 length=0.001 switch=T
New Line.25CF_1190 phases=3 bus1=473401.1.2.3 bus2=25CF1190.1.2.3 r1=0.001 r0=0.001 x1=0 x0=0 c1=0 c0=0 length=0.001 switch=T
New Line.25CF_1191 phases=3 bus1=38381.1.2.3 bus2=25CF1191.1.2.3 r1=0.001 r0=0.001 x1=0 x0=0 c1=0 c0=0 length=0.001 switch=T
New Line.25CF_1196 phases=3 bus1=551371.1.2.3 bus2=25CF1196.1.2.3 r1=0.001 r0=0.001 x1=0 x0=0 c1=0 c0=0 length=0.001 switch=T
New Line.25CF_1235 phases=3 bus1=629201.1.2.3 bus2=25CF1235.1.2.3 r1=0.001 r0=0.001 x1=0 x0=0 c1=0 c0=0 length=0.001 switch=T
New Line.25CF_1273 phases=3 bus1=168201.1.2.3 bus2=25CF1273.1.2.3 r1=0.001 r0=0.001 x1=0 x0=0 c1=0 c0=0 length=0.001 switch=T
New Line.25CF_1324 phases=1 bus1=755881.1 bus2=25CF1324.1 r1=0.001 r0=0.001 x1=0 x0=0 c1=0 c0=0 length=0.001 switch=T
New Line.25CF_1329 phases=3 bus1=744761.1.2.3 bus2=25CF1329.1.2.3 r1=0.001 r0=0.001 x1=0 x0=0 c1=0 c0=0 length=0.001 switch=T
New Line.25CF_1331 phases=3 bus1=766261.1.2.3 bus2=25CF1331.1.2.3 r1=0.001 r0=0.001 x1=0 x0=0 c1=0 c0=0 length=0.001 switch=T
New Line.25CF_1345 phases=1 bus1=684291.2 bus2=25CF1345.2 r1=0.001 r0=0.001 x1=0 x0=0 c1=0 c0=0 length=0.001 switch=T
New Line.25CF_1346 phases=3 bus1=684331.1.2.3 bus2=25CF1346.1.2.3 r1=0.001 r0=0.001 x1=0 x0=0 c1=0 c0=0 length=0.001 switch=T
New Line.25CF_1361 phases=3 bus1=691001.1.2.3 bus2=25CF1361.1.2.3 r1=0.001 r0=0.001 x1=0 x0=0 c1=0 c0=0 length=0.001 switch=T
New Line.25CF_1364 phases=3 bus1=684391.1.2.3 bus2=25CF1364.1.2.3 r1=0.001 r0=0.001 x1=0 x0=0 c1=0 c0=0 length=0.001 switch=T
New Line.25CF_1416 phases=3 bus1=544731.1.2.3 bus2=25CF1416.1.2.3 r1=0.001 r0=0.001 x1=0 x0=0 c1=0 c0=0 length=0.001 switch=T
New Line.25CF_1418 phases=3 bus1=755861.1.2.3 bus2=25CF1418.1.2.3 r1=0.001 r0=0.001 x1=0 x0=0 c1=0 c0=0 length=0.001 switch=T
New Line.25CF_1419 phases=3 bus1=686191.1.2.3 bus2=25CF1419.1.2.3 r1=0.001 r0=0.001 x1=0 x0=0 c1=0 c0=0 length=0.001 switch=T
New Line.25CF_1460 phases=3 bus1=639681.1.2.3 bus2=25CF1460.1.2.3 r1=0.001 r0=0.001 x1=0 x0=0 c1=0 c0=0 length=0.001 switch=T
New Line.25CF_1491 phases=1 bus1=689341.3 bus2=25CF1491.3 r1=0.001 r0=0.001 x1=0 x0=0 c1=0 c0=0 length=0.001 switch=T
New Line.25CF_1630 phases=1 bus1=759081.1 bus2=25CF1630.1 r1=0.001 r0=0.001 x1=0 x0=0 c1=0 c0=0 length=0.001 switch=T
New Line.25CF_1646 phases=3 bus1=772831.1.2.3 bus2=25CF1646.1.2.3 r1=0.001 r0=0.001 x1=0 x0=0 c1=0 c0=0 length=0.001 switch=T
New Line.25CF_1653 phases=1 bus1=763741.1 bus2=25CF1653.1 r1=0.001 r0=0.001 x1=0 x0=0 c1=0 c0=0 length=0.001 switch=T
New Line.25CF_170 phases=3 bus1=368211.1.2.3 bus2=25CF170.1.2.3 r1=0.001 r0=0.001 x1=0 x0=0 c1=0 c0=0 length=0.001 switch=T
New Line.25CF_1746 phases=3 bus1=790231.1.2.3 bus2=25CF1746.1.2.3 r1=0.001 r0=0.001 x1=0 x0=0 c1=0 c0=0 length=0.001 switch=T
New Line.25CF_1795 phases=3 bus1=798901.1.2.3 bus2=25CF1795.1.2.3 r1=0.001 r0=0.001 x1=0 x0=0 c1=0 c0=0 length=0.001 switch=T
New Line.25CF_1816 phases=3 bus1=810121.1.2.3 bus2=25CF1816.1.2.3 r1=0.001 r0=0.001 x1=0 x0=0 c1=0 c0=0 length=0.001 switch=T
New Line.25CF_1948 phases=3 bus1=814681.1.2.3 bus2=25CF1948.1.2.3 r1=0.001 r0=0.001 x1=0 x0=0 c1=0 c0=0 length=0.001 switch=T
New Line.25CF_360 phases=3 bus1=765591.1.2.3 bus2=25CF360.1.2.3 r1=0.001 r0=0.001 x1=0 x0=0 c1=0 c0=0 length=0.001 switch=T
New Line.25CF_394 phases=1 bus1=451181.1 bus2=25CF394.1 r1=0.001 r0=0.001 x1=0 x0=0 c1=0 c0=0 length=0.001 switch=T
New Line.25CF_395 phases=3 bus1=12841.1.2.3 bus2=25CF395.1.2.3 r1=0.001 r0=0.001 x1=0 x0=0 c1=0 c0=0 length=0.001 switch=T
New Line.25CF_397 phases=3 bus1=324451.1.2.3 bus2=25CF397.1.2.3 r1=0.001 r0=0.001 x1=0 x0=0 c1=0 c0=0 length=0.001 switch=T
New Line.25CF_398 phases=3 bus1=273961.1.2.3 bus2=25CF398.1.2.3 r1=0.001 r0=0.001 x1=0 x0=0 c1=0 c0=0 length=0.001 switch=T
New Line.25CF_701 phases=3 bus1=329251.1.2.3 bus2=25CF701.1.2.3 r1=0.001 r0=0.001 x1=0 x0=0 c1=0 c0=0 length=0.001 switch=T
New Line.25CF_777 phases=3 bus1=332301.1.2.3 bus2=25CF777.1.2.3 r1=0.001 r0=0.001 x1=0 x0=0 c1=0 c0=0 length=0.001 switch=T
New Line.25CF_788 phases=3 bus1=621351.1.2.3 bus2=25CF788.1.2.3 r1=0.001 r0=0.001 x1=0 x0=0 c1=0 c0=0 length=0.001 switch=T
New Line.25CF_797 phases=3 bus1=425861.1.2.3 bus2=25CF797.1.2.3 r1=0.001 r0=0.001 x1=0 x0=0 c1=0 c0=0 length=0.001 switch=T
New Line.25CF_827 phases=3 bus1=630761.1.2.3 bus2=25CF827.1.2.3 r1=0.001 r0=0.001 x1=0 x0=0 c1=0 c0=0 length=0.001 switch=T
New Line.25CF_834 phases=3 bus1=522481.1.2.3 bus2=25CF834.1.2.3 r1=0.001 r0=0.001 x1=0 x0=0 c1=0 c0=0 length=0.001 switch=T
New Line.25CF_864 phases=3 bus1=597361.1.2.3 bus2=25CF864.1.2.3 r1=0.001 r0=0.001 x1=0 x0=0 c1=0 c0=0 length=0.001 switch=T
New Line.25CF_916 phases=3 bus1=746101.1.2.3 bus2=25CF916.1.2.3 r1=0.001 r0=0.001 x1=0 x0=0 c1=0 c0=0 length=0.001 switch=T
New Line.25CF_944 phases=3 bus1=665541.1.2.3 bus2=25CF944.1.2.3 r1=0.001 r0=0.001 x1=0 x0=0 c1=0 c0=0 length=0.001 switch=T
New Line.25CF_985 phases=3 bus1=791531.1.2.3 bus2=25CF985.1.2.3 r1=0.001 r0=0.001 x1=0 x0=0 c1=0 c0=0 length=0.001 switch=T
New Line.25CS_1094 phases=3 bus1=529151.1.2.3 bus2=25CS1094.1.2.3 r1=0.001 r0=0.001 x1=0 x0=0 c1=0 c0=0 length=0.001 switch=T
New Line.25CS_1183 phases=3 bus1=666021.1.2.3 bus2=25CS1183.1.2.3 r1=0.001 r0=0.001 x1=0 x0=0 c1=0 c0=0 length=0.001 switch=T
New Line.25CS_1243 phases=3 bus1=729281.1.2.3 bus2=25CS1243.1.2.3 r1=0.001 r0=0.001 x1=0 x0=0 c1=0 c0=0 length=0.001 switch=T
New Line.25CS_1315 phases=3 bus1=801931.1.2.3 bus2=25CS1315.1.2.3 r1=0.001 r0=0.001 x1=0 x0=0 c1=0 c0=0 length=0.001 switch=T
New Line.25CS_1366 phases=3 bus1=741411.1.2.3 bus2=25CS1366.1.2.3 r1=0.001 r0=0.001 x1=0 x0=0 c1=0 c0=0 length=0.001 switch=T
New Line.25CS_1479 phases=3 bus1=424491.1.2.3 bus2=25CS1479.1.2.3 r1=0.001 r0=0.001 x1=0 x0=0 c1=0 c0=0 length=0.001 switch=T
New Line.25CS_1598 phases=3 bus1=755802.1.2.3 bus2=25CS1598.1.2.3 r1=0.001 r0=0.001 x1=0 x0=0 c1=0 c0=0 length=0.001 switch=T
New Line.25CS_1782 phases=3 bus1=790432.1.2.3 bus2=25CS1782.1.2.3 r1=0.001 r0=0.001 x1=0 x0=0 c1=0 c0=0 length=0.001 switch=T
New Line.25CS_1921 phases=3 bus1=813941.1.2.3 bus2=25CS1921.1.2.3 r1=0.001 r0=0.001 x1=0 x0=0 c1=0 c0=0 length=0.001 switch=T
New Line.25CS_393 phases=3 bus1=760321.1.2.3 bus2=25CS393.1.2.3 r1=0.001 r0=0.001 x1=0 x0=0 c1=0 c0=0 length=0.001 switch=T
New Line.25CS_51 phases=3 bus1=343431.1.2.3 bus2=25CS51.1.2.3 r1=0.001 r0=0.001 x1=0 x0=0 c1=0 c0=0 length=0.001 switch=T
New Line.25CS_52 phases=3 bus1=736401.1.2.3 bus2=25CS52.1.2.3 r1=0.001 r0=0.001 x1=0 x0=0 c1=0 c0=0 length=0.001 switch=T
New Line.25CS_758 phases=3 bus1=319021.1.2.3 bus2=25CS758.1.2.3 r1=0.001 r0=0.001 x1=0 x0=0 c1=0 c0=0 length=0.001 switch=T
New Line.25CS_846 phases=3 bus1=630781.1.2.3 bus2=25CS846.1.2.3 r1=0.001 r0=0.001 x1=0 x0=0 c1=0 c0=0 length=0.001 switch=T
New Line.25CS_920 phases=3 bus1=757902.1.2.3 bus2=25CS920.1.2.3 r1=0.001 r0=0.001 x1=0 x0=0 c1=0 c0=0 length=0.001 switch=T
New Line.25FR_1301 phases=3 bus1=743821.1.2.3 bus2=25FR1301.1.2.3 r1=0.001 r0=0.001 x1=0 x0=0 c1=0 c0=0 length=0.001 switch=T
New Line.25FR_975 phases=3 bus1=666301.1.2.3 bus2=25FR975.1.2.3 r1=0.001 r0=0.001 x1=0 x0=0 c1=0 c0=0 length=0.001 switch=T
New Line.25RL_350 phases=3 bus1=790461.1.2.3 bus2=25RL350.1.2.3 r1=0.001 r0=0.001 x1=0 x0=0 c1=0 c0=0 length=0.001 switch=T
New Line.4CF_404 phases=1 bus1=425701.3 bus2=4CF404.3 r1=0.001 r0=0.001 x1=0 x0=0 c1=0 c0=0 length=0.001 switch=T
